15,	1
1980s	2
1980s,	1
2,	1
2016,	2
2016.	2
2017,	1
2017.	1
2018	1
27,	1
31	1
31,	1
Actors	1
American	1
April	1
Astin,	1
August	1
Award	3
Bobby	1
Brothers	3
Brothers,	1
Brown,	1
Buono,	1
Caleb	1
Cara	1
Carpenter,	1
Charlie	1
Cohen	1
Dacre	1
Dan	1
David	1
December	1
Drama	2
Duffer	4
Dyer,	1
Emmy	1
Ensemble	1
Finn	1
For	1
Gaten	1
Globe	1
Golden	1
Guild	1
Harbour,	1
Hawkins,	1
Heaton,	1
In	1
Indiana,	1
It	1
Joe	1
John	1
July	2
Keery	2
King,	1
Levy,	1
Matarazzo,	1
Matthew	1
McLaughlin,	1
Millie	1
Modine,	1
Montgomery,	1
Natalia	1
Netflix	3
Netflix.	1
Noah	1
October	1
On	1
Outstanding	2
Paul	1
Performance	1
Reiser.	1
Ryder,	1
Sadie	1
Schnapp	2
Screen	1
Sean	1
Series	1
Series,	1
Set	1
Several	1
Shawn	1
Sink,	1
Spielberg,	1
Stephen	1
Steven	1
Stranger	3
The	7
They	1
Things	3
Winona	1
Wolfhard,	1
a	7
abilities	1
acclaim	1
acting,	1
additions	1
aesthetically	1
after	1
along	1
alongside	1
amid	1
among	1
an	2
and	18
anime	1
appearance	1
around	1
as	3
aspects	1
atmosphere,	1
attempts	1
be	1
began	1
boy	1
boy's	1
by	3
cast	1
characterization,	1
characters	1
childlike	1
consequences	1
consist	1
created	1
created,	1
critical	1
culture	1
deals	1
decade.	1
developed	1
directed	1
directing,	1
directorial	1
disappearance	1
drama	1
eight	1
elements	1
end	1
episodes,	2
established	1
events	1
executive	1
expected	1
fiction-horror	1
fictional	1
fifth	1
films,	1
films.	1
first	4
focuses	1
for	4
four	1
fourth	1
frame	1
friends	1
from	1
games.	1
genre	1
girl	1
has	1
have	1
helps	1
homage	1
homages	1
in	10
including	3
informed	1
inspired	1
into	1
investigation	1
investigative	1
is	4
its	3
later,	1
likely	1
linger	1
mid-2019.	1
missing	1
mix	1
nine	1
nominations,	2
normality	1
occurring	1
of	10
on	5
one	1
or	1
ordered	1
others,	1
own	1
pacing,	1
pop	1
portrayed	1
premiered	1
producers.	1
production	1
psychokinetic	1
received	2
recurring	1
regulars,	1
released	4
renewed	1
return	1
roles.	1
said	1
science	1
search.	1
season	3
season,	4
season.	2
second	3
sensibilities.	1
series	5
serve	1
set	1
several	1
soundtrack,	1
stars	1
supernatural	2
television	1
that	3
the	19
their	1
themes	1
third	1
time	1
titled	1
to	6
town	1
town,	1
video	1
was	1
web	1
were	2
which	2
who	1
will	1
with	5
won	1
works	1
writing,	1
written,	1
year	1
young	1
